Circuit: * C:\Users\JetN Amplify\OneDrive - Duke University\Documents\GitHub\Baxandall tone control circuit.asc

.step pot2dev=1 pot1dev=1
.step pot2dev=11 pot1dev=1
.step pot2dev=21 pot1dev=1
.step pot2dev=31 pot1dev=1
.step pot2dev=41 pot1dev=1
.step pot2dev=51 pot1dev=1
.step pot2dev=61 pot1dev=1
.step pot2dev=71 pot1dev=1
.step pot2dev=81 pot1dev=1
.step pot2dev=91 pot1dev=1
.step pot2dev=99 pot1dev=1
.step pot2dev=1 pot1dev=11
.step pot2dev=11 pot1dev=11
.step pot2dev=21 pot1dev=11
.step pot2dev=31 pot1dev=11
.step pot2dev=41 pot1dev=11
.step pot2dev=51 pot1dev=11
.step pot2dev=61 pot1dev=11
.step pot2dev=71 pot1dev=11
.step pot2dev=81 pot1dev=11
.step pot2dev=91 pot1dev=11
.step pot2dev=99 pot1dev=11
.step pot2dev=1 pot1dev=21
.step pot2dev=11 pot1dev=21
.step pot2dev=21 pot1dev=21
.step pot2dev=31 pot1dev=21
.step pot2dev=41 pot1dev=21
.step pot2dev=51 pot1dev=21
.step pot2dev=61 pot1dev=21
.step pot2dev=71 pot1dev=21
.step pot2dev=81 pot1dev=21
.step pot2dev=91 pot1dev=21
.step pot2dev=99 pot1dev=21
.step pot2dev=1 pot1dev=31
.step pot2dev=11 pot1dev=31
.step pot2dev=21 pot1dev=31
.step pot2dev=31 pot1dev=31
.step pot2dev=41 pot1dev=31
.step pot2dev=51 pot1dev=31
.step pot2dev=61 pot1dev=31
.step pot2dev=71 pot1dev=31
.step pot2dev=81 pot1dev=31
.step pot2dev=91 pot1dev=31
.step pot2dev=99 pot1dev=31
.step pot2dev=1 pot1dev=41
.step pot2dev=11 pot1dev=41
.step pot2dev=21 pot1dev=41
.step pot2dev=31 pot1dev=41
.step pot2dev=41 pot1dev=41
.step pot2dev=51 pot1dev=41
.step pot2dev=61 pot1dev=41
.step pot2dev=71 pot1dev=41
.step pot2dev=81 pot1dev=41
.step pot2dev=91 pot1dev=41
.step pot2dev=99 pot1dev=41
.step pot2dev=1 pot1dev=51
.step pot2dev=11 pot1dev=51
.step pot2dev=21 pot1dev=51
.step pot2dev=31 pot1dev=51
.step pot2dev=41 pot1dev=51
.step pot2dev=51 pot1dev=51
.step pot2dev=61 pot1dev=51
.step pot2dev=71 pot1dev=51
.step pot2dev=81 pot1dev=51
.step pot2dev=91 pot1dev=51
.step pot2dev=99 pot1dev=51
.step pot2dev=1 pot1dev=61
.step pot2dev=11 pot1dev=61
.step pot2dev=21 pot1dev=61
.step pot2dev=31 pot1dev=61
.step pot2dev=41 pot1dev=61
.step pot2dev=51 pot1dev=61
.step pot2dev=61 pot1dev=61
.step pot2dev=71 pot1dev=61
.step pot2dev=81 pot1dev=61
.step pot2dev=91 pot1dev=61
.step pot2dev=99 pot1dev=61
.step pot2dev=1 pot1dev=71
.step pot2dev=11 pot1dev=71
.step pot2dev=21 pot1dev=71
.step pot2dev=31 pot1dev=71
.step pot2dev=41 pot1dev=71
.step pot2dev=51 pot1dev=71
.step pot2dev=61 pot1dev=71
.step pot2dev=71 pot1dev=71
.step pot2dev=81 pot1dev=71
.step pot2dev=91 pot1dev=71
.step pot2dev=99 pot1dev=71
.step pot2dev=1 pot1dev=81
.step pot2dev=11 pot1dev=81
.step pot2dev=21 pot1dev=81
.step pot2dev=31 pot1dev=81
.step pot2dev=41 pot1dev=81
.step pot2dev=51 pot1dev=81
.step pot2dev=61 pot1dev=81
.step pot2dev=71 pot1dev=81
.step pot2dev=81 pot1dev=81
.step pot2dev=91 pot1dev=81
.step pot2dev=99 pot1dev=81
.step pot2dev=1 pot1dev=91
.step pot2dev=11 pot1dev=91
.step pot2dev=21 pot1dev=91
.step pot2dev=31 pot1dev=91
.step pot2dev=41 pot1dev=91
.step pot2dev=51 pot1dev=91
.step pot2dev=61 pot1dev=91
.step pot2dev=71 pot1dev=91
.step pot2dev=81 pot1dev=91
.step pot2dev=91 pot1dev=91
.step pot2dev=99 pot1dev=91
.step pot2dev=1 pot1dev=99
.step pot2dev=11 pot1dev=99
.step pot2dev=21 pot1dev=99
.step pot2dev=31 pot1dev=99
.step pot2dev=41 pot1dev=99
.step pot2dev=51 pot1dev=99
.step pot2dev=61 pot1dev=99
.step pot2dev=71 pot1dev=99
.step pot2dev=81 pot1dev=99
.step pot2dev=91 pot1dev=99
.step pot2dev=99 pot1dev=99

Date: Wed Feb 23 15:56:00 2022
Total elapsed time: 29.235 seconds.

tnom = 27
temp = 27
method = trap
totiter = 0
traniter = 0
tranpoints = 0
accept = 0
rejected = 0
matrix size = 9
fillins = 4
solver = Normal

