Circuit: * C:\Users\JetN Amplify\OneDrive - Duke University\Documents\GitHub\Draft5.asc

.OP point found by inspection.

Date: Wed Feb 23 15:09:57 2022
Total elapsed time: 0.075 seconds.

tnom = 27
temp = 27
method = modified trap
totiter = 2082
traniter = 2082
tranpoints = 1042
accept = 1042
rejected = 0
matrix size = 3
fillins = 0
solver = Normal
Matrix Compiler1:       3 opcodes  0.1/[0.1]/0.1
Matrix Compiler2: 175 bytes object code size  0.1/0.1/[0.1]

