Circuit: * C:\Users\JetN Amplify\OneDrive - Duke University\Documents\LEDpulser\LEDpulser4_with_RG58_NEW.asc

rg58: using linear interpolation because trytocompact option specified
WARNING: Node N006 is floating.

Direct Newton iteration for .op point succeeded.
.step dev=0.5
.step dev=1
.step dev=1.5
.step dev=2
.step dev=2.5
.step dev=3

Date: Tue Mar 08 15:43:19 2022
Total elapsed time: 0.784 seconds.

tnom = 27
temp = 27
method = modified trap
totiter = 3831
traniter = 3806
tranpoints = 1169
accept = 1138
rejected = 31
matrix size = 18
fillins = 9
solver = Normal
Matrix Compiler1: 1.28 KB object code size  0.3/0.8/[0.2]
Matrix Compiler2: 1.51 KB object code size  0.2/0.5/[0.2]

