Circuit: * C:\Users\JetN Amplify\OneDrive - Duke University\Documents\GitHub\LEDpulser4.asc

Direct Newton iteration for .op point succeeded.

Date: Wed Mar 02 15:06:12 2022
Total elapsed time: 0.126 seconds.

tnom = 27
temp = 27
method = modified trap
totiter = 2386
traniter = 2361
tranpoints = 1137
accept = 1116
rejected = 21
matrix size = 13
fillins = 0
solver = Normal
Matrix Compiler1: 442 bytes object code size  0.1/0.1/[0.1]
Matrix Compiler2: off  [0.1]/0.2/0.2

