Circuit: * C:\Users\JetN Amplify\OneDrive - Duke University\Documents\LEDpulser\LEDpulser4_CAT8.asc

cat8: using linear interpolation because trytocompact option specified
WARNING: Node N006 is floating.

Direct Newton iteration for .op point succeeded.

Date: Tue Mar 08 15:37:52 2022
Total elapsed time: 0.222 seconds.

tnom = 27
temp = 27
method = modified trap
totiter = 3830
traniter = 3805
tranpoints = 1173
accept = 1141
rejected = 32
matrix size = 18
fillins = 9
solver = Normal
Matrix Compiler1: 1.28 KB object code size  0.7/0.2/[0.2]
Matrix Compiler2: 1.51 KB object code size  0.2/0.2/[0.2]

