Circuit: * C:\Users\JetN Amplify\OneDrive - Duke University\Documents\GitHub\LEDPulser 2.asc

rg58: using linear interpolation because trytocompact option specified
WARNING: Node N006 is floating.

Direct Newton iteration failed to find .op point.  (Use ".option noopiter" to skip.)
Starting Gmin stepping
Gmin = 10
Gmin = 1.07374
Gmin = 0.115292
Gmin = 0.0123794
Gmin = 0.00132923
Gmin = 0.000142725
Gmin = 1.5325e-005
Gmin = 1.6455e-006
Gmin = 1.76685e-007
Gmin = 1.89714e-008
Gmin = 2.03704e-009
Gmin = 2.18725e-010
Gmin = 2.34854e-011
vernier = 0.5
vernier = 0.25
Gmin = 8.5212e-012
vernier = 0.125
vernier = 0.166667
Gmin = 6.33715e-012
vernier = 0.222222
vernier = 0.111111
Gmin = 4.57318e-012
vernier = 0.148148
vernier = 0.074074
vernier = 0.037037
vernier = 0.0185185
Gmin = 3.77692e-012
vernier = 0.00925925
vernier = 0.00462963
vernier = 0.00231481
vernier = 0.00115741
vernier = 0.000578703
vernier = 0.000434027
Gmin = 3.77638e-012
Gmin = 0
Gmin stepping failed

Starting source stepping with srcstepmethod=0
Source Step = 3.0303%
vernier = 0.25
Source Step = 0.0177557%
Source Step = 0.0473485%
Source Step = 0.0769413%
Source Step = 0.106534%
Source Step = 0.136127%
Source Step = 0.16572%
vernier = 0.00146484
Source Step = 0.196792%
Source Step = 0.241181%
Source Step = 0.285571%
Source Step = 0.32996%
Source Step = 0.374349%
Source Step = 0.418738%
Source Step = 0.463127%
Source Step = 0.507517%
vernier = 0.00219727
Source Step = 0.567442%
Source Step = 0.634026%
Source Step = 0.70061%
Source Step = 0.767193%
Source Step = 0.833777%
vernier = 0.0032959
Source Step = 0.920336%
Source Step = 1.02021%
Source Step = 1.12009%
Source Step = 1.21996%
Source Step = 1.31984%
vernier = 0.00494385
Source Step = 1.44468%
Source Step = 1.5945%
Source Step = 1.74431%
Source Step = 1.89412%
Source Step = 2.04394%
vernier = 0.00741577
Source Step = 2.22371%
Source Step = 2.44843%
Starting source stepping with srcstepmethod=1
Source Step = 3.0303%
Source Step = 33.3333%
Source Step = 53.7879%
Source Step = 54.2673%
Source stepping failed

Pseudo Transient succeeded in finding the operating point at 327.68 ms.

Date: Mon Feb 28 13:57:53 2022
Total elapsed time: 0.571 seconds.

tnom = 27
temp = 27
method = modified trap
totiter = 13760
traniter = 3951
tranpoints = 1267
accept = 1200
rejected = 67
matrix size = 20
fillins = 18
solver = Normal
Matrix Compiler1:     119 opcodes  0.5/0.4/[0.2]
Matrix Compiler2: 1.89 KB object code size  0.2/0.3/[0.2]

