Circuit: * C:\Users\JetN Amplify\OneDrive - Duke University\Documents\GitHub\LEDpulser4_FULL_RG58.asc

rg58: using linear interpolation because trytocompact option specified
WARNING: Node N005 is floating.
WARNING: Node N009 is floating.
WARNING: Node N012 is floating.
WARNING: Node N015 is floating.

Direct Newton iteration for .op point succeeded.

Date: Tue Mar 01 17:59:52 2022
Total elapsed time: 2.682 seconds.

tnom = 27
temp = 27
method = modified trap
totiter = 210479
traniter = 210453
tranpoints = 36018
accept = 28042
rejected = 7976
matrix size = 32
fillins = 60
solver = Normal
Matrix Compiler1: 5.97 KB object code size  1.6/1.7/[1.0]
Matrix Compiler2: 3.64 KB object code size  0.6/0.8/[0.3]

