Circuit: * C:\Users\JetN Amplify\OneDrive - Duke University\Documents\GitHub\LEDpulser3.asc

Direct Newton iteration for .op point succeeded.

Date: Mon Feb 28 16:00:58 2022
Total elapsed time: 0.555 seconds.

tnom = 27
temp = 27
method = modified trap
totiter = 8054
traniter = 8028
tranpoints = 2917
accept = 2461
rejected = 456
matrix size = 39
fillins = 0
solver = Normal
Matrix Compiler1: 1.49 KB object code size  0.7/0.4/[0.2]
Matrix Compiler2: 2.94 KB object code size  0.4/0.6/[0.2]

