Circuit: * C:\Users\JetN Amplify\OneDrive - Duke University\Documents\GitHub\MOSFET.asc

Direct Newton iteration for .op point succeeded.

Date: Mon Feb 28 15:03:02 2022
Total elapsed time: 0.103 seconds.

tnom = 27
temp = 27
method = modified trap
totiter = 2447
traniter = 2443
tranpoints = 1220
accept = 1190
rejected = 30
matrix size = 6
fillins = 0
solver = Normal
Matrix Compiler1: 182 bytes object code size  0.2/0.1/[0.1]
Matrix Compiler2: 408 bytes object code size  0.1/0.1/[0.1]

