Circuit: * C:\Users\JetN Amplify\OneDrive - Duke University\Documents\GitHub\Voltage Divider.asc

.OP point found by inspection.

Date: Wed Feb 23 14:47:22 2022
Total elapsed time: 0.058 seconds.

tnom = 27
temp = 27
method = modified trap
totiter = 2114
traniter = 2114
tranpoints = 1058
accept = 1057
rejected = 1
matrix size = 3
fillins = 0
solver = Normal
Matrix Compiler1: 50 bytes object code size  0.0/0.0/[0.0]
Matrix Compiler2: 175 bytes object code size  0.1/0.1/[0.0]

